#======================================================================

# CRYSTAL DATA

#----------------------------------------------------------------------

data_VESTA_phase_1


_chemical_name_common                  ''
_cell_length_a                         5.19350
_cell_length_b                         5.08980
_cell_length_c                         11.69720
_cell_angle_alpha                      90
_cell_angle_beta                       90
_cell_angle_gamma                      90.38700
_space_group_name_H-M_alt              'P 1'
_space_group_IT_number                 1

loop_
_space_group_symop_operation_xyz
   'x, y, z'

loop_
   _atom_site_label
   _atom_site_occupancy
   _atom_site_fract_x
   _atom_site_fract_y
   _atom_site_fract_z
   _atom_site_adp_type
   _atom_site_B_iso_or_equiv
   _atom_site_type_symbol
   O1         1.0     0.146500      0.507700      0.208200     Biso  1.000000 O
   O2         1.0     0.853500      0.492300      0.791800     Biso  1.000000 O
   O3         1.0     0.853500      0.992300      0.208200     Biso  1.000000 O
   O4         1.0     0.146500      0.007700      0.791800     Biso  1.000000 O
   O5         1.0     0.646500      0.007700      0.708200     Biso  1.000000 O
   O6         1.0     0.353500      0.992300      0.291800     Biso  1.000000 O
   O7         1.0     0.353500      0.492300      0.708200     Biso  1.000000 O
   O8         1.0     0.646500      0.507700      0.291800     Biso  1.000000 O
   O9         1.0     0.260600      0.381000      0.449300     Biso  1.000000 O
   O10        1.0     0.739400      0.619000      0.550700     Biso  1.000000 O
   O11        1.0     0.739400      0.119000      0.449300     Biso  1.000000 O
   O12        1.0     0.260600      0.881000      0.550700     Biso  1.000000 O
   O13        1.0     0.760600      0.881000      0.949300     Biso  1.000000 O
   O14        1.0     0.239400      0.119000      0.050700     Biso  1.000000 O
   O15        1.0     0.239400      0.619000      0.949300     Biso  1.000000 O
   O16        1.0     0.760600      0.381000      0.050700     Biso  1.000000 O
   V1         1.0     0.000000      0.250000      0.130000     Biso  1.000000 V
   V2         1.0     0.000000      0.750000      0.870000     Biso  1.000000 V
   V3         1.0     0.500000      0.750000      0.630000     Biso  1.000000 V
   V4         1.0     0.500000      0.250000      0.370000     Biso  1.000000 V
   Bi1        1.0     0.000000      0.250000      0.633500     Biso  1.000000 Bi
   Bi2        1.0     0.000000      0.750000      0.366500     Biso  1.000000 Bi
   Bi3        1.0     0.500000      0.750000      0.133500     Biso  1.000000 Bi
   Bi4        1.0     0.500000      0.250000      0.866500     Biso  1.000000 Bi
