#======================================================================

# CRYSTAL DATA

#----------------------------------------------------------------------

data_VESTA_phase_1


_chemical_name_common                  ''
_cell_length_a                         5.04422
_cell_length_b                         5.04422
_cell_length_c                         11.40278
_cell_angle_alpha                      90
_cell_angle_beta                       90
_cell_angle_gamma                      90
_space_group_name_H-M_alt              'P 1'
_space_group_IT_number                 1

loop_
_space_group_symop_operation_xyz
   'x, y, z'

loop_
   _atom_site_label
   _atom_site_occupancy
   _atom_site_fract_x
   _atom_site_fract_y
   _atom_site_fract_z
   _atom_site_adp_type
   _atom_site_B_iso_or_equiv
   _atom_site_type_symbol
   O1         1.0     0.752059      0.137837      0.078676     Biso  1.000000 O
   O2         1.0     0.252059      0.637837      0.578676     Biso  1.000000 O
   O3         1.0     0.747941      0.362163      0.578676     Biso  1.000000 O
   O4         1.0     0.247941      0.862163      0.078676     Biso  1.000000 O
   O5         1.0     0.862163      0.252059      0.328676     Biso  1.000000 O
   O6         1.0     0.362163      0.752059      0.828676     Biso  1.000000 O
   O7         1.0     0.637837      0.247941      0.828676     Biso  1.000000 O
   O8         1.0     0.137837      0.747941      0.328676     Biso  1.000000 O
   O9         1.0     0.247941      0.362163      0.171324     Biso  1.000000 O
   O10        1.0     0.747941      0.862163      0.671324     Biso  1.000000 O
   O11        1.0     0.252059      0.137837      0.671324     Biso  1.000000 O
   O12        1.0     0.752059      0.637837      0.171324     Biso  1.000000 O
   O13        1.0     0.137837      0.247941      0.921324     Biso  1.000000 O
   O14        1.0     0.637837      0.747941      0.421324     Biso  1.000000 O
   O15        1.0     0.362163      0.252059      0.421324     Biso  1.000000 O
   O16        1.0     0.862163      0.752059      0.921324     Biso  1.000000 O
   V1         1.0     0.000000      0.000000      0.000000     Biso  1.000000 V
   V2         1.0     0.500000      0.500000      0.500000     Biso  1.000000 V
   V3         1.0     0.000000      0.500000      0.250000     Biso  1.000000 V
   V4         1.0     0.500000      0.000000      0.750000     Biso  1.000000 V
   Bi1        1.0     0.000000      0.000000      0.500000     Biso  1.000000 Bi
   Bi2        1.0     0.500000      0.500000      0.000000     Biso  1.000000 Bi
   Bi3        1.0     0.000000      0.500000      0.750000     Biso  1.000000 Bi
   Bi4        1.0     0.500000      0.000000      0.250000     Biso  1.000000 Bi
